<?xml version="1.0" encoding="ISO-8859-1"?>
<flow tool="ius">
  <template name="ius5.8"/>
</flow>